&time_control
run_minutes=10,
start_year=2005,
start_month=07,
start_day=16,
start_hour=00,
end_year=2005,
end_month=07,
end_day=16,
end_hour=06,
interval_seconds=21600,
input_from_file=true,
history_interval=9999,
frames_per_outfile=1000,
restart=false,
debug_level=0,
auxinput2_inname="./auxhist2_d<domain>_<date>",
inputout_interval=10,
auxinput2_interval=10,
inputout_begin_h=0,
inputout_end_h=6,
input_outname="tl_d<domain>_<date>",
write_input=true,
/
&domains
time_step=600,
e_we=31,
e_sn=25,
e_vert=17,
dx=135000,
dy=135000,
i_parent_start=0,
j_parent_start=0,
smooth_option=0,
nproc_x=0,
/
&physics
mp_physics=0,
ra_lw_physics=0,
ra_sw_physics=0,
radt=0,
sf_sfclay_physics=0,
sf_surface_physics=0,
bl_pbl_physics=0,
bldt=0,
cu_physics=0,
cudt=0,
isfflx=0,
icloud=0,
num_soil_layers=4,
mp_zero_out=2,
/
&dynamics
dyn_opt=202,
w_damping=0,
diff_opt=0,
km_opt=4,
damp_opt=0,
dampcoef=0.01,
smdiv=0.1,
emdiv=0.01,
time_step_sound=4,
jcdfi_tauc=21600,
jcdfi_gama=10.0,
jcdfi_error_wind=3.0,
jcdfi_error_t=1.0,
jcdfi_error_mu=1000.,
/
&bdy_control
specified=true,
nested=false,
real_data_init_type=1,
/
&wrfvar
/
&namelist_quilt
/
